tests/data/power_flow/pandapower/components/symmetric/pandapower-symmetric-shunt/sym_output.json
{
  "line": [
    {
      "id": 3,
      "loading": 0.0023903058673036934,
      "p_from": 1104.160661308981,
      "q_from": -43457.54029616104,
      "i_from": 2.3903058673036934,
      "s_from": 43471.565181834005,
      "p_to": -1102.608553572691,
      "q_to": 8820.868428702743,
      "i_to": 0.48877246234131416,
      "s_to": 8889.514354501964
    }
  ],
  "node": [
    {
      "id": 1,
      "u_pu": 1.0000043131813192,
      "u": 10500.045288403851,
      "u_angle": -5.422844411098334e-07
    },
    {
      "id": 2,
      "u_pu": 1.0000492294418635,
      "u": 10500.516909139567,
      "u_angle": -6.181494465255796e-05
    }
  ],
  "shunt": [
    {
      "id": 6,
      "p": 1102.6085535912598,
      "q": -8820.868428730078
    },
    {
      "id": 7,
      "p": 0.0,
      "q": -0.0
    }
  ],
  "source": [
    {
      "id": 4,
      "p": 1104.16066113845,
      "q": -43457.54029618946,
      "i": 2.3903058673050177,
      "s": 43471.56518185808
    }
  ]
}